
##########                                Name:              545303
##########                DOCK_Rotatable_Bonds:                   2
##########                    Molecular_Weight:             276.376
##########                       Formal_Charge:         -0.00019972
##########                          Grid_Score:          -27.708700
##########                     Grid_vdw_energy:          -25.636261
##########                      Grid_es_energy:           -2.072440
##########           Internal_energy_repulsive:           33.572701

@<TRIPOS>MOLECULE
545303
 44 45 1 0 0
SMALL
GASTEIGER


@<TRIPOS>ATOM
      1 O          32.5898   47.9149   37.1643 O.3     1  UNL1       -0.4496
      2 O          37.5158   46.3829   37.6267 O.2     1  UNL1       -0.2873
      3 O          30.4430   48.6178   37.5641 O.2     1  UNL1       -0.2508
      4 C          33.3710   46.7317   37.4319 C.3     1  UNL1        0.1516
      5 C          32.3206   45.6391   37.6107 C.3     1  UNL1        0.0047
      6 C          35.5753   46.3517   36.2692 C.2     1  UNL1        0.0050
      7 C          35.5021   46.8643   38.7772 C.2     1  UNL1        0.0050
      8 C          36.4003   46.0695   35.0521 C.3     1  UNL1       -0.0092
      9 C          36.2545   47.0896   40.0517 C.3     1  UNL1       -0.0092
     10 C          34.2396   46.4629   36.2366 C.2     1  UNL1       -0.0297
     11 C          34.1678   46.9642   38.6890 C.2     1  UNL1       -0.0297
     12 C          36.2963   46.5173   37.5638 C.2     1  UNL1        0.1859
     13 C          31.1313   46.3805   38.1821 C.3     1  UNL1        0.0492
     14 C          31.3043   47.7531   37.6061 C.2     1  UNL1        0.3083
     15 C          37.3655   47.2405   34.8074 C.3     1  UNL1       -0.0559
     16 C          35.4848   45.8993   33.8277 C.3     1  UNL1       -0.0559
     17 C          37.2089   44.7770   35.2564 C.3     1  UNL1       -0.0559
     18 C          36.9618   45.7884   40.4632 C.3     1  UNL1       -0.0559
     19 C          35.2821   47.5149   41.1649 C.3     1  UNL1       -0.0559
     20 C          37.3024   48.1977   39.8514 C.3     1  UNL1       -0.0559
     21 H          32.6452   44.8113   38.2506 H       1  UNL1        0.0315
     22 H          32.0285   45.2050   36.6449 H       1  UNL1        0.0315
     23 H          33.6732   46.3632   35.3168 H       1  UNL1        0.0619
     24 H          33.5532   47.2219   39.5442 H       1  UNL1        0.0619
     25 H          31.1702   46.4396   39.2734 H       1  UNL1        0.0379
     26 H          30.1890   45.9345   37.8556 H       1  UNL1        0.0379
     27 H          36.8804   48.1510   34.4456 H       1  UNL1        0.0238
     28 H          38.1036   46.9712   34.0416 H       1  UNL1        0.0238
     29 H          37.9252   47.4947   35.7157 H       1  UNL1        0.0238
     30 H          36.0634   45.5518   32.9630 H       1  UNL1        0.0238
     31 H          34.7047   45.1516   34.0155 H       1  UNL1        0.0238
     32 H          34.9916   46.8225   33.5112 H       1  UNL1        0.0238
     33 H          36.5697   43.8962   35.3922 H       1  UNL1        0.0238
     34 H          37.9168   44.8502   36.0911 H       1  UNL1        0.0238
     35 H          37.8173   44.5703   34.3662 H       1  UNL1        0.0238
     36 H          37.5687   45.3874   39.6425 H       1  UNL1        0.0238
     37 H          37.6413   45.9735   41.3044 H       1  UNL1        0.0238
     38 H          36.2825   44.9976   40.7929 H       1  UNL1        0.0238
     39 H          35.8378   47.8524   42.0487 H       1  UNL1        0.0238
     40 H          34.6497   48.3516   40.8442 H       1  UNL1        0.0238
     41 H          34.6254   46.7132   41.5130 H       1  UNL1        0.0238
     42 H          37.8551   48.3644   40.7852 H       1  UNL1        0.0238
     43 H          38.0579   47.9333   39.1016 H       1  UNL1        0.0238
     44 H          36.8510   49.1638   39.5947 H       1  UNL1        0.0238
@<TRIPOS>BOND
     1     1     4    1
     2     1    14    1
     3     2    12    2
     4     3    14    2
     5     4     5    1
     6     4    10    1
     7     4    11    1
     8     5    13    1
     9     5    21    1
    10     5    22    1
    11     6     8    1
    12     6    10    2
    13     6    12    1
    14     7     9    1
    15     7    11    2
    16     7    12    1
    17     8    15    1
    18     8    16    1
    19     8    17    1
    20     9    18    1
    21     9    19    1
    22     9    20    1
    23    10    23    1
    24    11    24    1
    25    13    14    1
    26    13    25    1
    27    13    26    1
    28    15    27    1
    29    15    28    1
    30    15    29    1
    31    16    30    1
    32    16    31    1
    33    16    32    1
    34    17    33    1
    35    17    34    1
    36    17    35    1
    37    18    36    1
    38    18    37    1
    39    18    38    1
    40    19    39    1
    41    19    40    1
    42    19    41    1
    43    20    42    1
    44    20    43    1
    45    20    44    1
@<TRIPOS>SUBSTRUCTURE
     1 UNL1        1 TEMP              0 ****  ****    0 ROOT


##########                                Name:                2519
##########                DOCK_Rotatable_Bonds:                   0
##########                    Molecular_Weight:             194.193
##########                       Formal_Charge:        -2.08616e-07
##########                          Grid_Score:          -28.179441
##########                     Grid_vdw_energy:          -28.256754
##########                      Grid_es_energy:            0.077312
##########           Internal_energy_repulsive:            0.000000

@<TRIPOS>MOLECULE
2519
 24 25 1 0 0
SMALL
GASTEIGER


@<TRIPOS>ATOM
      1 O          32.1494   47.4002   45.6105 O.2     1  UNL1       -0.2652
      2 O          33.3909   47.0240   41.1015 O.2     1  UNL1       -0.2462
      3 N          31.6135   45.7290   41.8616 N.ar    1  UNL1       -0.2796
      4 N          30.0455   45.3712   44.9733 N.ar    1  UNL1       -0.3277
      5 N          32.7897   47.2287   43.3561 N.ar    1  UNL1       -0.2622
      6 N          29.7820   44.4903   42.9424 N.ar    1  UNL1       -0.2177
      7 C          31.0001   45.9430   44.1820 C.ar    1  UNL1        0.1512
      8 C          30.8167   45.3869   42.9455 C.ar    1  UNL1        0.1678
      9 C          32.0012   46.9110   44.4939 C.ar    1  UNL1        0.2822
     10 C          32.6502   46.6808   42.0299 C.ar    1  UNL1        0.3331
     11 C          29.3373   44.5040   44.1821 C.ar    1  UNL1        0.0986
     12 C          31.3858   45.1141   40.5598 C.3     1  UNL1        0.0181
     13 C          29.8050   45.6148   46.3755 C.3     1  UNL1        0.0135
     14 C          33.8510   48.2115   43.5496 C.3     1  UNL1        0.0196
     15 H          28.5140   43.9129   44.5598 H       1  UNL1        0.1029
     16 H          31.5060   44.0304   40.6533 H       1  UNL1        0.0458
     17 H          32.0900   45.4834   39.8100 H       1  UNL1        0.0458
     18 H          30.3676   45.3449   40.2316 H       1  UNL1        0.0458
     19 H          28.9682   44.9989   46.7149 H       1  UNL1        0.0456
     20 H          30.7074   45.3509   46.9324 H       1  UNL1        0.0456
     21 H          29.5622   46.6721   46.5065 H       1  UNL1        0.0456
     22 H          33.9024   48.5845   44.5749 H       1  UNL1        0.0458
     23 H          33.6779   49.0506   42.8683 H       1  UNL1        0.0458
     24 H          34.8073   47.7491   43.2852 H       1  UNL1        0.0458
@<TRIPOS>BOND
     1     1     9    2
     2     2    10    2
     3     3     8   ar
     4     3    10   ar
     5     3    12    1
     6     4     7   ar
     7     4    11   ar
     8     4    13    1
     9     5     9   ar
    10     5    10   ar
    11     5    14    1
    12     6     8   ar
    13     6    11   ar
    14     7     8   ar
    15     7     9   ar
    16    11    15    1
    17    12    16    1
    18    12    17    1
    19    12    18    1
    20    13    19    1
    21    13    20    1
    22    13    21    1
    23    14    22    1
    24    14    23    1
    25    14    24    1
@<TRIPOS>SUBSTRUCTURE
     1 UNL1        1 TEMP              0 ****  ****    0 ROOT


##########                                Name:              173183
##########                DOCK_Rotatable_Bonds:                   6
##########                    Molecular_Weight:             400.688
##########                       Formal_Charge:        -0.000599962
##########                          Grid_Score:          -27.052990
##########                     Grid_vdw_energy:          -26.889008
##########                      Grid_es_energy:           -0.163982
##########           Internal_energy_repulsive:           32.494793

@<TRIPOS>MOLECULE
173183
 77 80 1 0 0
SMALL
GASTEIGER


@<TRIPOS>ATOM
      1 O          34.8136   54.3447   45.9997 O.3     1  UNL1       -0.3915
      2 C          37.1754   48.1442   40.3067 C.3     1  UNL1       -0.0259
      3 C          36.2320   47.8947   41.5002 C.3     1  UNL1       -0.0320
      4 C          36.4031   48.9139   42.6311 C.3     1  UNL1       -0.0307
      5 C          36.1572   50.3484   42.0795 C.3     1  UNL1       -0.0285
      6 C          36.7822   46.9355   39.4229 C.3     1  UNL1       -0.0328
      7 C          36.8191   49.5156   39.7161 C.3     1  UNL1       -0.0468
      8 C          36.3606   51.4430   43.2026 C.3     1  UNL1       -0.0078
      9 C          36.4235   46.4132   41.8103 C.3     1  UNL1       -0.0492
     10 C          36.9422   50.6310   40.7688 C.3     1  UNL1       -0.0486
     11 C          36.6595   45.7690   40.4316 C.3     1  UNL1       -0.0492
     12 C          35.4314   48.6166   43.7829 C.3     1  UNL1       -0.0311
     13 C          37.7063   46.6153   38.2569 C.3     1  UNL1       -0.0405
     14 C          38.6799   48.1024   40.6729 C.3     1  UNL1       -0.0590
     15 C          35.6896   51.0107   44.5139 C.2     1  UNL1       -0.0648
     16 C          35.7117   52.7718   42.7118 C.3     1  UNL1       -0.0413
     17 C          35.2733   49.7529   44.7416 C.2     1  UNL1       -0.0839
     18 C          37.8624   51.6819   43.4903 C.3     1  UNL1       -0.0556
     19 C          35.4962   52.0719   45.5725 C.3     1  UNL1       -0.0051
     20 C          35.5861   53.8470   43.7903 C.3     1  UNL1       -0.0258
     21 C          37.1655   45.4038   37.4670 C.3     1  UNL1       -0.0499
     22 C          34.8312   53.3238   45.0071 C.3     1  UNL1        0.0590
     23 C          37.8771   47.8507   37.3665 C.3     1  UNL1       -0.0621
     24 C          38.2643   44.4638   36.9562 C.3     1  UNL1       -0.0500
     25 C          37.7715   43.4383   35.9070 C.3     1  UNL1       -0.0415
     26 C          36.5583   43.9286   35.0653 C.3     1  UNL1       -0.0441
     27 C          37.5172   42.0982   36.6123 C.3     1  UNL1       -0.0622
     28 C          36.8840   45.2050   34.2800 C.3     1  UNL1       -0.0624
     29 C          35.9951   42.8712   34.1121 C.3     1  UNL1       -0.0624
     30 H          35.1928   47.9973   41.1435 H       1  UNL1        0.0309
     31 H          37.4210   48.8444   43.0309 H       1  UNL1        0.0309
     32 H          35.0934   50.3799   41.7921 H       1  UNL1        0.0312
     33 H          35.7755   47.1521   39.0412 H       1  UNL1        0.0309
     34 H          35.7921   49.5098   39.3294 H       1  UNL1        0.0271
     35 H          37.4654   49.8027   38.8863 H       1  UNL1        0.0271
     36 H          35.5479   45.9820   42.3063 H       1  UNL1        0.0268
     37 H          37.2885   46.2482   42.4625 H       1  UNL1        0.0268
     38 H          38.0039   50.7847   40.9827 H       1  UNL1        0.0268
     39 H          36.5828   51.5629   40.3176 H       1  UNL1        0.0268
     40 H          37.5661   45.1543   40.4691 H       1  UNL1        0.0268
     41 H          35.8254   45.1106   40.1658 H       1  UNL1        0.0268
     42 H          35.7886   47.7384   44.3344 H       1  UNL1        0.0310
     43 H          34.4370   48.3636   43.3946 H       1  UNL1        0.0310
     44 H          38.6999   46.3250   38.6206 H       1  UNL1        0.0301
     45 H          39.3098   48.3614   39.8165 H       1  UNL1        0.0235
     46 H          38.9384   48.8079   41.4671 H       1  UNL1        0.0235
     47 H          38.9972   47.1138   41.0197 H       1  UNL1        0.0235
     48 H          34.7049   52.5670   42.3230 H       1  UNL1        0.0274
     49 H          36.2852   53.1910   41.8765 H       1  UNL1        0.0274
     50 H          34.7850   49.5117   45.6828 H       1  UNL1        0.0572
     51 H          38.3830   50.7498   43.7335 H       1  UNL1        0.0238
     52 H          38.3708   52.1378   42.6347 H       1  UNL1        0.0238
     53 H          38.0219   52.3612   44.3343 H       1  UNL1        0.0238
     54 H          34.8937   51.6998   46.4114 H       1  UNL1        0.0335
     55 H          36.4655   52.3317   46.0166 H       1  UNL1        0.0335
     56 H          36.5763   54.2143   44.0873 H       1  UNL1        0.0290
     57 H          35.0633   54.7214   43.3828 H       1  UNL1        0.0290
     58 H          36.4813   44.8650   38.1312 H       1  UNL1        0.0268
     59 H          36.5569   45.7433   36.6206 H       1  UNL1        0.0268
     60 H          33.7919   53.1086   44.7300 H       1  UNL1        0.0596
     61 H          38.2546   47.5539   36.3805 H       1  UNL1        0.0233
     62 H          38.6287   48.5356   37.7642 H       1  UNL1        0.0233
     63 H          36.9362   48.3838   37.1996 H       1  UNL1        0.0233
     64 H          39.0624   45.0398   36.4769 H       1  UNL1        0.0268
     65 H          38.7244   43.9330   37.7974 H       1  UNL1        0.0268
     66 H          38.6021   43.2753   35.2055 H       1  UNL1        0.0301
     67 H          34.3824   53.9772   46.7899 H       1  UNL1        0.2098
     68 H          35.7564   44.2069   35.7599 H       1  UNL1        0.0298
     69 H          37.2953   41.3017   35.8964 H       1  UNL1        0.0232
     70 H          36.6871   42.1653   37.3223 H       1  UNL1        0.0232
     71 H          38.4056   41.7833   37.1713 H       1  UNL1        0.0232
     72 H          37.3224   45.9659   34.9340 H       1  UNL1        0.0232
     73 H          35.9719   45.6283   33.8448 H       1  UNL1        0.0232
     74 H          37.5792   45.0132   33.4567 H       1  UNL1        0.0232
     75 H          35.1227   43.2643   33.5780 H       1  UNL1        0.0232
     76 H          36.7321   42.5706   33.3610 H       1  UNL1        0.0232
     77 H          35.6678   41.9749   34.6462 H       1  UNL1        0.0232
@<TRIPOS>BOND
     1     1    22    1
     2     1    67    1
     3     2     3    1
     4     2     6    1
     5     2     7    1
     6     2    14    1
     7     3     4    1
     8     3     9    1
     9     3    30    1
    10     4     5    1
    11     4    12    1
    12     4    31    1
    13     5     8    1
    14     5    10    1
    15     5    32    1
    16     6    11    1
    17     6    13    1
    18     6    33    1
    19     7    10    1
    20     7    34    1
    21     7    35    1
    22     8    15    1
    23     8    16    1
    24     8    18    1
    25     9    11    1
    26     9    36    1
    27     9    37    1
    28    10    38    1
    29    10    39    1
    30    11    40    1
    31    11    41    1
    32    12    17    1
    33    12    42    1
    34    12    43    1
    35    13    21    1
    36    13    23    1
    37    13    44    1
    38    14    45    1
    39    14    46    1
    40    14    47    1
    41    15    17    2
    42    15    19    1
    43    16    20    1
    44    16    48    1
    45    16    49    1
    46    17    50    1
    47    18    51    1
    48    18    52    1
    49    18    53    1
    50    19    22    1
    51    19    54    1
    52    19    55    1
    53    20    22    1
    54    20    56    1
    55    20    57    1
    56    21    24    1
    57    21    58    1
    58    21    59    1
    59    22    60    1
    60    23    61    1
    61    23    62    1
    62    23    63    1
    63    24    25    1
    64    24    64    1
    65    24    65    1
    66    25    26    1
    67    25    27    1
    68    25    66    1
    69    26    28    1
    70    26    29    1
    71    26    68    1
    72    27    69    1
    73    27    70    1
    74    27    71    1
    75    28    72    1
    76    28    73    1
    77    28    74    1
    78    29    75    1
    79    29    76    1
    80    29    77    1
@<TRIPOS>SUBSTRUCTURE
     1 UNL1        1 TEMP              0 ****  ****    0 ROOT


##########                                Name:               72276
##########                DOCK_Rotatable_Bonds:                   6
##########                    Molecular_Weight:             290.272
##########                       Formal_Charge:        -9.98974e-05
##########                          Grid_Score:          -34.909721
##########                     Grid_vdw_energy:          -33.512714
##########                      Grid_es_energy:           -1.397005
##########           Internal_energy_repulsive:           10.268641

@<TRIPOS>MOLECULE
72276
 35 37 1 0 0
SMALL
GASTEIGER


@<TRIPOS>ATOM
      1 O          33.0934   46.5043   41.4299 O.3     1  UNL1       -0.4811
      2 O          31.2222   44.3499   41.0401 O.3     1  UNL1       -0.3875
      3 O          32.3778   45.9503   36.6701 O.3     1  UNL1       -0.5063
      4 O          36.7259   46.7981   38.4070 O.3     1  UNL1       -0.5065
      5 O          28.9529   44.7079   45.1802 O.3     1  UNL1       -0.5033
      6 O          30.3826   46.1248   47.0972 O.3     1  UNL1       -0.5033
      7 C          30.8728   45.6991   40.7285 C.3     1  UNL1        0.1004
      8 C          31.6769   46.6674   41.6063 C.3     1  UNL1        0.1513
      9 C          31.1820   45.9711   39.2577 C.3     1  UNL1        0.0092
     10 C          32.6548   46.1985   39.0473 C.ar    1  UNL1        0.0384
     11 C          33.5115   46.4563   40.1250 C.ar    1  UNL1        0.1317
     12 C          31.3281   46.5192   43.0756 C.ar    1  UNL1       -0.0012
     13 C          33.1822   46.1731   37.7492 C.ar    1  UNL1        0.1270
     14 C          34.8794   46.6442   39.9101 C.ar    1  UNL1        0.0221
     15 C          30.2898   45.6735   43.4624 C.ar    1  UNL1       -0.0098
     16 C          32.0462   47.2301   44.0360 C.ar    1  UNL1       -0.0513
     17 C          34.5462   46.3750   37.5350 C.ar    1  UNL1        0.0218
     18 C          35.3947   46.6063   38.6154 C.ar    1  UNL1        0.1238
     19 C          29.9686   45.5380   44.8130 C.ar    1  UNL1        0.1586
     20 C          31.7250   47.0948   45.3866 C.ar    1  UNL1       -0.0162
     21 C          30.6863   46.2487   45.7750 C.ar    1  UNL1        0.1582
     22 H          29.7938   45.8031   40.8936 H       1  UNL1        0.0637
     23 H          31.4436   47.7031   41.3182 H       1  UNL1        0.0811
     24 H          30.6478   46.8710   38.9299 H       1  UNL1        0.0342
     25 H          30.8464   45.1206   38.6527 H       1  UNL1        0.0342
     26 H          35.5377   46.8270   40.7563 H       1  UNL1        0.0691
     27 H          29.7329   45.1182   42.7115 H       1  UNL1        0.0659
     28 H          32.1882   44.2698   40.9670 H       1  UNL1        0.2100
     29 H          32.8647   47.8883   43.7583 H       1  UNL1        0.0623
     30 H          34.9556   46.3517   36.5280 H       1  UNL1        0.0691
     31 H          32.2934   47.6527   46.1259 H       1  UNL1        0.0655
     32 H          31.4564   45.8677   36.9699 H       1  UNL1        0.2921
     33 H          36.9613   46.4509   37.5295 H       1  UNL1        0.2921
     34 H          28.6911   44.1688   44.4140 H       1  UNL1        0.2923
     35 H          30.9789   46.6935   47.6138 H       1  UNL1        0.2923
@<TRIPOS>BOND
     1     1     8    1
     2     1    11    1
     3     2     7    1
     4     2    28    1
     5     3    13    1
     6     3    32    1
     7     4    18    1
     8     4    33    1
     9     5    19    1
    10     5    34    1
    11     6    21    1
    12     6    35    1
    13     7     8    1
    14     7     9    1
    15     7    22    1
    16     8    12    1
    17     8    23    1
    18     9    10    1
    19     9    24    1
    20     9    25    1
    21    10    11   ar
    22    10    13   ar
    23    11    14   ar
    24    12    15   ar
    25    12    16   ar
    26    13    17   ar
    27    14    18   ar
    28    14    26    1
    29    15    19   ar
    30    15    27    1
    31    16    20   ar
    32    16    29    1
    33    17    18   ar
    34    17    30    1
    35    19    21   ar
    36    20    21   ar
    37    20    31    1
@<TRIPOS>SUBSTRUCTURE
     1 UNL1        1 TEMP              0 ****  ****    0 ROOT


##########                                Name:              637542
##########                DOCK_Rotatable_Bonds:                   5
##########                    Molecular_Weight:             164.161
##########                       Formal_Charge:         0.000299841
##########                          Grid_Score:          -27.581232
##########                     Grid_vdw_energy:          -26.317799
##########                      Grid_es_energy:           -1.263434
##########           Internal_energy_repulsive:            2.926223

@<TRIPOS>MOLECULE
637542
 20 20 1 0 0
SMALL
GASTEIGER


@<TRIPOS>ATOM
      1 O          30.1904   46.3855   47.0963 O.3     1  UNL1       -0.5068
      2 O          29.9222   42.6087   39.2740 O.3     1  UNL1       -0.4775
      3 O          31.4111   44.3078   38.9564 O.2     1  UNL1       -0.2458
      4 C          30.7666   45.3391   43.1214 C.ar    1  UNL1       -0.0246
      5 C          29.7846   44.6977   43.8762 C.ar    1  UNL1       -0.0511
      6 C          31.5552   46.3321   43.7025 C.ar    1  UNL1       -0.0511
      7 C          29.5910   45.0495   45.2120 C.ar    1  UNL1       -0.0196
      8 C          31.3617   46.6838   45.0384 C.ar    1  UNL1       -0.0196
      9 C          30.3795   46.0424   45.7931 C.ar    1  UNL1        0.1169
     10 C          30.9683   44.9731   41.7283 C.2     1  UNL1       -0.0478
     11 C          30.3550   43.9501   41.0927 C.2     1  UNL1        0.0229
     12 C          30.6470   43.6809   39.6704 C.2     1  UNL1        0.3296
     13 H          29.1608   43.9057   43.4721 H       1  UNL1        0.0625
     14 H          32.3248   46.8442   43.1297 H       1  UNL1        0.0625
     15 H          28.8255   44.5396   45.7909 H       1  UNL1        0.0654
     16 H          31.9788   47.4583   45.4856 H       1  UNL1        0.0654
     17 H          31.6666   45.5995   41.1770 H       1  UNL1        0.0626
     18 H          29.6249   43.3097   41.5745 H       1  UNL1        0.0689
     19 H          30.8747   47.0262   47.3561 H       1  UNL1        0.2921
     20 H          30.0886   42.3797   38.3346 H       1  UNL1        0.2954
@<TRIPOS>BOND
     1     1     9    1
     2     1    19    1
     3     2    12    1
     4     2    20    1
     5     3    12    2
     6     4     5   ar
     7     4     6   ar
     8     4    10    1
     9     5     7   ar
    10     5    13    1
    11     6     8   ar
    12     6    14    1
    13     7     9   ar
    14     7    15    1
    15     8     9   ar
    16     8    16    1
    17    10    11    2
    18    10    17    1
    19    11    12    1
    20    11    18    1
@<TRIPOS>SUBSTRUCTURE
     1 UNL1        1 TEMP              0 ****  ****    0 ROOT


##########                                Name:                7047
##########                DOCK_Rotatable_Bonds:                   0
##########                    Molecular_Weight:             129.161
##########                       Formal_Charge:         0.000199951
##########                          Grid_Score:          -22.117048
##########                     Grid_vdw_energy:          -21.786367
##########                      Grid_es_energy:           -0.330681
##########           Internal_energy_repulsive:            0.000000

@<TRIPOS>MOLECULE
7047
 17 18 1 0 0
SMALL
GASTEIGER


@<TRIPOS>ATOM
      1 N          29.4082   44.9981   45.8465 N.ar    1  UNL1       -0.2550
      2 C          30.9466   46.1461   44.3895 C.ar    1  UNL1        0.0004
      3 C          30.3578   45.9330   45.6535 C.ar    1  UNL1        0.0710
      4 C          31.9353   47.1309   44.2241 C.ar    1  UNL1       -0.0526
      5 C          30.5160   45.3512   43.3187 C.ar    1  UNL1       -0.0511
      6 C          30.7858   46.7229   46.7169 C.ar    1  UNL1       -0.0357
      7 C          32.3445   47.9066   45.3050 C.ar    1  UNL1       -0.0611
      8 C          31.7689   47.7021   46.5527 C.ar    1  UNL1       -0.0597
      9 C          29.5377   44.3870   43.5145 C.ar    1  UNL1       -0.0430
     10 C          29.0206   44.2520   44.7867 C.ar    1  UNL1        0.0283
     11 H          32.3924   47.2991   43.2514 H       1  UNL1        0.0624
     12 H          30.9410   45.4791   42.3258 H       1  UNL1        0.0625
     13 H          30.3506   46.5824   47.7046 H       1  UNL1        0.0639
     14 H          33.1087   48.6665   45.1734 H       1  UNL1        0.0618
     15 H          32.0821   48.3027   47.4017 H       1  UNL1        0.0618
     16 H          29.1931   43.7637   42.6977 H       1  UNL1        0.0633
     17 H          28.2533   43.5149   44.9997 H       1  UNL1        0.0830
@<TRIPOS>BOND
     1     1     3   ar
     2     1    10   ar
     3     2     3   ar
     4     2     4   ar
     5     2     5   ar
     6     3     6   ar
     7     4     7   ar
     8     4    11    1
     9     5     9   ar
    10     5    12    1
    11     6     8   ar
    12     6    13    1
    13     7     8   ar
    14     7    14    1
    15     8    15    1
    16     9    10   ar
    17     9    16    1
    18    10    17    1
@<TRIPOS>SUBSTRUCTURE
     1 UNL1        1 TEMP              0 ****  ****    0 ROOT


##########                                Name:             5284421
##########                DOCK_Rotatable_Bonds:                  17
##########                    Molecular_Weight:             294.478
##########                       Formal_Charge:        -0.000400007
##########                          Grid_Score:          -44.059780
##########                     Grid_vdw_energy:          -42.850700
##########                      Grid_es_energy:           -1.209079
##########           Internal_energy_repulsive:            8.106494

@<TRIPOS>MOLECULE
5284421
 55 54 1 0 0
SMALL
GASTEIGER


@<TRIPOS>ATOM
      1 O          30.0225   46.8386   46.6517 O.3     1  UNL1       -0.4679
      2 O          30.6199   44.6115   46.5914 O.2     1  UNL1       -0.2509
      3 C          31.6334   46.3537   41.2534 C.3     1  UNL1       -0.0530
      4 C          31.1053   46.3262   39.8175 C.3     1  UNL1       -0.0528
      5 C          30.6925   45.6144   42.2068 C.3     1  UNL1       -0.0526
      6 C          31.1594   44.9108   39.2342 C.3     1  UNL1       -0.0496
      7 C          31.0174   45.9381   43.6683 C.3     1  UNL1       -0.0430
      8 C          31.0667   44.8878   37.7053 C.3     1  UNL1       -0.0348
      9 C          29.8152   45.7390   44.5914 C.3     1  UNL1        0.0449
     10 C          32.1899   40.6892   31.3121 C.3     1  UNL1       -0.0496
     11 C          33.5945   40.4598   31.8755 C.3     1  UNL1       -0.0530
     12 C          30.5208   43.5955   37.1704 C.2     1  UNL1       -0.0876
     13 C          31.6197   42.0312   31.7784 C.3     1  UNL1       -0.0348
     14 C          34.2138   39.1298   31.4401 C.3     1  UNL1       -0.0559
     15 C          30.8980   43.0533   36.0027 C.2     1  UNL1       -0.0842
     16 C          30.3538   41.7610   35.4681 C.3     1  UNL1       -0.0165
     17 C          30.1975   45.6244   46.0507 C.2     1  UNL1        0.3068
     18 C          31.5262   42.0914   33.2753 C.2     1  UNL1       -0.0876
     19 C          30.4486   41.6997   33.9715 C.2     1  UNL1       -0.0842
     20 C          35.6100   38.8983   31.9966 C.3     1  UNL1       -0.0653
     21 C          31.2225   47.5671   46.9301 C.3     1  UNL1        0.0817
     22 H          32.6266   45.8894   41.2864 H       1  UNL1        0.0265
     23 H          31.7505   47.3930   41.5835 H       1  UNL1        0.0265
     24 H          30.0746   46.6991   39.8091 H       1  UNL1        0.0265
     25 H          31.6998   47.0044   39.1932 H       1  UNL1        0.0265
     26 H          29.6542   45.8954   41.9911 H       1  UNL1        0.0265
     27 H          30.7764   44.5370   42.0257 H       1  UNL1        0.0265
     28 H          32.0989   44.4300   39.5340 H       1  UNL1        0.0268
     29 H          30.3473   44.3078   39.6603 H       1  UNL1        0.0268
     30 H          31.8481   45.3066   44.0068 H       1  UNL1        0.0270
     31 H          31.3540   46.9790   43.7452 H       1  UNL1        0.0270
     32 H          32.0776   45.0148   37.2982 H       1  UNL1        0.0307
     33 H          30.4971   45.7614   37.3737 H       1  UNL1        0.0307
     34 H          29.2833   44.8292   44.2887 H       1  UNL1        0.0377
     35 H          29.1269   46.5854   44.4938 H       1  UNL1        0.0377
     36 H          31.5283   39.8746   31.6330 H       1  UNL1        0.0268
     37 H          32.2339   40.6533   30.2166 H       1  UNL1        0.0268
     38 H          34.2509   41.2811   31.5618 H       1  UNL1        0.0265
     39 H          33.5512   40.4898   32.9715 H       1  UNL1        0.0265
     40 H          29.7855   43.0726   37.7766 H       1  UNL1        0.0569
     41 H          30.6620   42.2462   31.2935 H       1  UNL1        0.0307
     42 H          32.2877   42.8397   31.4535 H       1  UNL1        0.0307
     43 H          33.5668   38.3066   31.7658 H       1  UNL1        0.0263
     44 H          34.2548   39.0874   30.3451 H       1  UNL1        0.0263
     45 H          31.6395   43.5902   35.4150 H       1  UNL1        0.0572
     46 H          30.8734   40.9361   35.9604 H       1  UNL1        0.0350
     47 H          29.2903   41.6828   35.7259 H       1  UNL1        0.0350
     48 H          32.3910   42.4673   33.8157 H       1  UNL1        0.0569
     49 H          29.5949   41.3041   33.4263 H       1  UNL1        0.0572
     50 H          35.6060   38.9364   33.0905 H       1  UNL1        0.0230
     51 H          35.9825   37.9159   31.6940 H       1  UNL1        0.0230
     52 H          36.3064   39.6581   31.6283 H       1  UNL1        0.0230
     53 H          30.9443   48.5120   47.4042 H       1  UNL1        0.0661
     54 H          31.7582   47.7843   46.0011 H       1  UNL1        0.0661
     55 H          31.8564   47.0016   47.6199 H       1  UNL1        0.0661
@<TRIPOS>BOND
     1     1    17    1
     2     1    21    1
     3     2    17    2
     4     3     4    1
     5     3     5    1
     6     3    22    1
     7     3    23    1
     8     4     6    1
     9     4    24    1
    10     4    25    1
    11     5     7    1
    12     5    26    1
    13     5    27    1
    14     6     8    1
    15     6    28    1
    16     6    29    1
    17     7     9    1
    18     7    30    1
    19     7    31    1
    20     8    12    1
    21     8    32    1
    22     8    33    1
    23     9    17    1
    24     9    34    1
    25     9    35    1
    26    10    11    1
    27    10    13    1
    28    10    36    1
    29    10    37    1
    30    11    14    1
    31    11    38    1
    32    11    39    1
    33    12    15    2
    34    12    40    1
    35    13    18    1
    36    13    41    1
    37    13    42    1
    38    14    20    1
    39    14    43    1
    40    14    44    1
    41    15    16    1
    42    15    45    1
    43    16    19    1
    44    16    46    1
    45    16    47    1
    46    18    19    2
    47    18    48    1
    48    19    49    1
    49    20    50    1
    50    20    51    1
    51    20    52    1
    52    21    53    1
    53    21    54    1
    54    21    55    1
@<TRIPOS>SUBSTRUCTURE
     1 UNL1        1 TEMP              0 ****  ****    0 ROOT


##########                                Name:              638072
##########                DOCK_Rotatable_Bonds:                  21
##########                    Molecular_Weight:             410.727
##########                       Formal_Charge:        -0.000600193
##########                          Grid_Score:          -41.624012
##########                     Grid_vdw_energy:          -42.079998
##########                      Grid_es_energy:            0.455986
##########           Internal_energy_repulsive:           16.592506

@<TRIPOS>MOLECULE
638072
 80 79 1 0 0
SMALL
GASTEIGER


@<TRIPOS>ATOM
      1 C          36.6325   51.6063   43.7794 C.3     1  UNL1       -0.0286
      2 C          35.5860   46.1225   38.3833 C.3     1  UNL1       -0.0286
      3 C          37.1866   49.9064   40.2390 C.3     1  UNL1       -0.0311
      4 C          36.7828   48.4676   39.8926 C.3     1  UNL1       -0.0311
      5 C          35.1741   51.5266   44.2383 C.3     1  UNL1       -0.0308
      6 C          34.0984   46.4818   38.2938 C.3     1  UNL1       -0.0308
      7 C          36.7787   51.3899   42.2901 C.2     1  UNL1       -0.0762
      8 C          36.5217   47.1202   37.7260 C.2     1  UNL1       -0.0762
      9 C          37.0282   50.2019   41.7062 C.2     1  UNL1       -0.0847
     10 C          37.0240   48.1432   38.4446 C.2     1  UNL1       -0.0847
     11 C          35.1063   50.8133   46.6907 C.2     1  UNL1       -0.0762
     12 C          31.9394   45.9247   39.5501 C.2     1  UNL1       -0.0762
     13 C          34.9829   51.1113   48.1681 C.3     1  UNL1       -0.0286
     14 C          31.1576   45.1643   40.6006 C.3     1  UNL1       -0.0286
     15 C          35.0593   51.7466   45.7205 C.2     1  UNL1       -0.0847
     16 C          33.2565   45.7666   39.3146 C.2     1  UNL1       -0.0847
     17 C          33.5303   51.0663   48.6496 C.3     1  UNL1       -0.0308
     18 C          31.2245   45.7881   42.0010 C.3     1  UNL1       -0.0308
     19 C          36.5978   52.6239   41.4444 C.3     1  UNL1       -0.0438
     20 C          36.8606   46.8377   36.2884 C.3     1  UNL1       -0.0438
     21 C          35.3389   49.3664   46.3421 C.3     1  UNL1       -0.0438
     22 C          31.1530   46.9498   38.7743 C.3     1  UNL1       -0.0438
     23 C          33.4413   51.3650   50.1202 C.2     1  UNL1       -0.0850
     24 C          30.3854   45.0475   43.0050 C.2     1  UNL1       -0.0850
     25 C          32.5275   50.9098   50.9981 C.2     1  UNL1       -0.0796
     26 C          30.1414   45.3725   44.2885 C.2     1  UNL1       -0.0796
     27 C          31.3892   49.9888   50.6622 C.3     1  UNL1       -0.0440
     28 C          32.6036   51.3022   52.4493 C.3     1  UNL1       -0.0440
     29 C          29.2656   44.4934   45.1416 C.3     1  UNL1       -0.0440
     30 C          30.6675   46.5902   44.9931 C.3     1  UNL1       -0.0440
     31 H          37.2305   50.8637   44.3235 H       1  UNL1        0.0313
     32 H          37.0540   52.5876   44.0336 H       1  UNL1        0.0313
     33 H          35.7387   45.1447   37.9080 H       1  UNL1        0.0313
     34 H          35.8535   45.9796   39.4386 H       1  UNL1        0.0313
     35 H          38.2414   50.0658   39.9771 H       1  UNL1        0.0310
     36 H          36.6319   50.6103   39.6120 H       1  UNL1        0.0310
     37 H          35.7105   48.3471   40.0909 H       1  UNL1        0.0310
     38 H          37.2909   47.7765   40.5698 H       1  UNL1        0.0310
     39 H          34.7103   50.5875   43.9200 H       1  UNL1        0.0310
     40 H          34.5793   52.3141   43.7583 H       1  UNL1        0.0310
     41 H          33.9652   47.5610   38.4441 H       1  UNL1        0.0310
     42 H          33.7341   46.3026   37.2768 H       1  UNL1        0.0310
     43 H          37.1199   49.3337   42.3579 H       1  UNL1        0.0572
     44 H          37.6988   48.8365   37.9432 H       1  UNL1        0.0572
     45 H          35.5814   50.3880   48.7385 H       1  UNL1        0.0313
     46 H          35.4174   52.0938   48.3887 H       1  UNL1        0.0313
     47 H          31.5331   44.1331   40.6349 H       1  UNL1        0.0313
     48 H          30.1053   45.0918   40.2943 H       1  UNL1        0.0313
     49 H          34.9460   52.7873   46.0208 H       1  UNL1        0.0572
     50 H          33.7881   45.0334   39.9156 H       1  UNL1        0.0572
     51 H          32.9590   51.8342   48.1135 H       1  UNL1        0.0310
     52 H          33.0764   50.1103   48.3781 H       1  UNL1        0.0310
     53 H          30.9469   46.8422   41.9184 H       1  UNL1        0.0310
     54 H          32.2579   45.7664   42.3675 H       1  UNL1        0.0310
     55 H          35.5375   52.8886   41.3782 H       1  UNL1        0.0274
     56 H          36.9743   52.5343   40.4242 H       1  UNL1        0.0274
     57 H          37.1360   53.4667   41.8928 H       1  UNL1        0.0274
     58 H          37.6811   47.4438   35.9008 H       1  UNL1        0.0274
     59 H          35.9907   47.0194   35.6496 H       1  UNL1        0.0274
     60 H          37.1612   45.7909   36.1714 H       1  UNL1        0.0274
     61 H          34.5346   48.7508   46.7596 H       1  UNL1        0.0274
     62 H          35.3731   49.1532   45.2745 H       1  UNL1        0.0274
     63 H          36.2865   49.0251   46.7724 H       1  UNL1        0.0274
     64 H          30.6291   47.6182   39.4663 H       1  UNL1        0.0274
     65 H          31.7464   47.5836   38.1135 H       1  UNL1        0.0274
     66 H          30.4061   46.4553   38.1448 H       1  UNL1        0.0274
     67 H          34.2043   52.0512   50.4862 H       1  UNL1        0.0572
     68 H          29.9329   44.1305   42.6290 H       1  UNL1        0.0572
     69 H          31.4310   49.0979   51.2983 H       1  UNL1        0.0274
     70 H          30.4336   50.4921   50.8421 H       1  UNL1        0.0274
     71 H          31.3891   49.6383   49.6290 H       1  UNL1        0.0274
     72 H          31.6862   51.8186   52.7504 H       1  UNL1        0.0274
     73 H          32.7238   50.4125   53.0763 H       1  UNL1        0.0274
     74 H          33.4452   51.9710   52.6581 H       1  UNL1        0.0274
     75 H          29.8791   43.7798   45.7009 H       1  UNL1        0.0274
     76 H          28.5056   43.9475   44.5779 H       1  UNL1        0.0274
     77 H          28.7122   45.1003   45.8675 H       1  UNL1        0.0274
     78 H          29.8429   47.2316   45.3203 H       1  UNL1        0.0274
     79 H          31.3147   47.1843   44.3396 H       1  UNL1        0.0274
     80 H          31.2558   46.2982   45.8692 H       1  UNL1        0.0274
@<TRIPOS>BOND
     1     1     5    1
     2     1     7    1
     3     1    31    1
     4     1    32    1
     5     2     6    1
     6     2     8    1
     7     2    33    1
     8     2    34    1
     9     3     4    1
    10     3     9    1
    11     3    35    1
    12     3    36    1
    13     4    10    1
    14     4    37    1
    15     4    38    1
    16     5    15    1
    17     5    39    1
    18     5    40    1
    19     6    16    1
    20     6    41    1
    21     6    42    1
    22     7     9    2
    23     7    19    1
    24     8    10    2
    25     8    20    1
    26     9    43    1
    27    10    44    1
    28    11    13    1
    29    11    15    2
    30    11    21    1
    31    12    14    1
    32    12    16    2
    33    12    22    1
    34    13    17    1
    35    13    45    1
    36    13    46    1
    37    14    18    1
    38    14    47    1
    39    14    48    1
    40    15    49    1
    41    16    50    1
    42    17    23    1
    43    17    51    1
    44    17    52    1
    45    18    24    1
    46    18    53    1
    47    18    54    1
    48    19    55    1
    49    19    56    1
    50    19    57    1
    51    20    58    1
    52    20    59    1
    53    20    60    1
    54    21    61    1
    55    21    62    1
    56    21    63    1
    57    22    64    1
    58    22    65    1
    59    22    66    1
    60    23    25    2
    61    23    67    1
    62    24    26    2
    63    24    68    1
    64    25    27    1
    65    25    28    1
    66    26    29    1
    67    26    30    1
    68    27    69    1
    69    27    70    1
    70    27    71    1
    71    28    72    1
    72    28    73    1
    73    28    74    1
    74    29    75    1
    75    29    76    1
    76    29    77    1
    77    30    78    1
    78    30    79    1
    79    30    80    1
@<TRIPOS>SUBSTRUCTURE
     1 UNL1        1 TEMP              0 ****  ****    0 ROOT


##########                                Name:             5280794
##########                DOCK_Rotatable_Bonds:                   7
##########                    Molecular_Weight:             412.699
##########                       Formal_Charge:        -0.000399869
##########                          Grid_Score:          -27.549265
##########                     Grid_vdw_energy:          -28.022997
##########                      Grid_es_energy:            0.473732
##########           Internal_energy_repulsive:           24.874014

@<TRIPOS>MOLECULE
5280794
 78 81 1 0 0
SMALL
GASTEIGER


@<TRIPOS>ATOM
      1 O          35.3476   51.3987   45.1310 O.3     1  UNL1       -0.3915
      2 C          37.5755   47.0879   37.8587 C.3     1  UNL1       -0.0256
      3 C          36.1859   46.9895   38.5192 C.3     1  UNL1       -0.0320
      4 C          36.1965   47.3479   40.0087 C.3     1  UNL1       -0.0307
      5 C          36.7456   48.7929   40.1915 C.3     1  UNL1       -0.0285
      6 C          37.2060   46.6131   36.4320 C.3     1  UNL1       -0.0294
      7 C          38.0279   48.5518   37.9522 C.3     1  UNL1       -0.0468
      8 C          36.8130   49.1974   41.7187 C.3     1  UNL1       -0.0078
      9 C          35.6805   45.6131   38.0978 C.3     1  UNL1       -0.0492
     10 C          38.0672   49.0366   39.4118 C.3     1  UNL1       -0.0486
     11 C          36.2482   45.4238   36.6787 C.3     1  UNL1       -0.0489
     12 C          34.7849   47.2395   40.6043 C.3     1  UNL1       -0.0311
     13 C          38.6431   46.1640   38.4957 C.3     1  UNL1       -0.0590
     14 C          35.5319   48.7757   42.4522 C.2     1  UNL1       -0.0648
     15 C          38.3644   46.2593   35.5108 C.3     1  UNL1       -0.0224
     16 C          36.9650   50.7455   41.8073 C.3     1  UNL1       -0.0413
     17 C          34.6404   47.9157   41.9299 C.2     1  UNL1       -0.0839
     18 C          38.0128   48.5235   42.4270 C.3     1  UNL1       -0.0556
     19 C          35.2880   49.3779   43.8167 C.3     1  UNL1       -0.0051
     20 C          36.7731   51.3179   43.2110 C.3     1  UNL1       -0.0258
     21 C          35.4318   50.8973   43.8008 C.3     1  UNL1        0.0590
     22 C          38.1138   46.7869   34.0962 C.3     1  UNL1       -0.0587
     23 C          38.5704   44.7643   35.4754 C.2     1  UNL1       -0.0845
     24 C          38.1849   43.9813   34.4557 C.2     1  UNL1       -0.0843
     25 C          38.3923   42.4808   34.4215 C.3     1  UNL1       -0.0208
     26 C          38.5698   41.9293   32.9761 C.3     1  UNL1       -0.0405
     27 C          37.2416   41.8138   35.2076 C.3     1  UNL1       -0.0494
     28 C          39.7674   42.5167   32.2222 C.3     1  UNL1       -0.0621
     29 C          37.2956   42.1137   32.1400 C.3     1  UNL1       -0.0621
     30 C          37.3273   40.2946   35.2546 C.3     1  UNL1       -0.0647
     31 H          35.5206   47.7197   38.0276 H       1  UNL1        0.0309
     32 H          36.8378   46.6412   40.5472 H       1  UNL1        0.0309
     33 H          36.0037   49.4567   39.7180 H       1  UNL1        0.0312
     34 H          36.6113   47.4060   35.9502 H       1  UNL1        0.0312
     35 H          37.3459   49.1981   37.3849 H       1  UNL1        0.0271
     36 H          39.0253   48.7122   37.5415 H       1  UNL1        0.0271
     37 H          34.5871   45.5598   38.0994 H       1  UNL1        0.0268
     38 H          36.0517   44.8276   38.7656 H       1  UNL1        0.0268
     39 H          38.9054   48.5448   39.9138 H       1  UNL1        0.0268
     40 H          38.2995   50.1076   39.4062 H       1  UNL1        0.0268
     41 H          36.7588   44.4558   36.6178 H       1  UNL1        0.0268
     42 H          35.4410   45.4183   35.9378 H       1  UNL1        0.0268
     43 H          34.5259   46.1801   40.7199 H       1  UNL1        0.0310
     44 H          34.0430   47.6741   39.9226 H       1  UNL1        0.0310
     45 H          38.7618   46.3364   39.5688 H       1  UNL1        0.0235
     46 H          38.4026   45.1028   38.3752 H       1  UNL1        0.0235
     47 H          39.6288   46.3260   38.0478 H       1  UNL1        0.0235
     48 H          39.2909   46.7197   35.8763 H       1  UNL1        0.0343
     49 H          36.2301   51.2248   41.1460 H       1  UNL1        0.0274
     50 H          37.9528   51.0535   41.4445 H       1  UNL1        0.0274
     51 H          33.7402   47.6715   42.4888 H       1  UNL1        0.0572
     52 H          38.0181   48.7104   43.5062 H       1  UNL1        0.0238
     53 H          38.0044   47.4366   42.2957 H       1  UNL1        0.0238
     54 H          38.9690   48.9005   42.0501 H       1  UNL1        0.0238
     55 H          34.2913   49.1235   44.2000 H       1  UNL1        0.0335
     56 H          35.9870   48.9402   44.5406 H       1  UNL1        0.0335
     57 H          37.5946   51.0066   43.8680 H       1  UNL1        0.0290
     58 H          36.8302   52.4130   43.1756 H       1  UNL1        0.0290
     59 H          34.6137   51.3467   43.2258 H       1  UNL1        0.0596
     60 H          38.3717   47.8445   34.0098 H       1  UNL1        0.0235
     61 H          38.7592   46.2723   33.3730 H       1  UNL1        0.0235
     62 H          37.0806   46.6288   33.7696 H       1  UNL1        0.0235
     63 H          39.0632   44.3141   36.3343 H       1  UNL1        0.0572
     64 H          37.6781   44.4351   33.6078 H       1  UNL1        0.0572
     65 H          35.5329   50.6653   45.7421 H       1  UNL1        0.2098
     66 H          39.3234   42.2418   34.9556 H       1  UNL1        0.0345
     67 H          38.7475   40.8486   33.0628 H       1  UNL1        0.0301
     68 H          37.2049   42.1852   36.2387 H       1  UNL1        0.0268
     69 H          36.2884   42.0884   34.7391 H       1  UNL1        0.0268
     70 H          40.6859   42.4019   32.8067 H       1  UNL1        0.0233
     71 H          39.6284   43.5811   32.0089 H       1  UNL1        0.0233
     72 H          39.9126   42.0015   31.2664 H       1  UNL1        0.0233
     73 H          37.0508   43.1691   31.9859 H       1  UNL1        0.0233
     74 H          36.4335   41.6190   32.5959 H       1  UNL1        0.0233
     75 H          37.4286   41.6650   31.1487 H       1  UNL1        0.0233
     76 H          37.3872   39.8731   34.2461 H       1  UNL1        0.0230
     77 H          38.1960   39.9534   35.8254 H       1  UNL1        0.0230
     78 H          36.4346   39.8846   35.7381 H       1  UNL1        0.0230
@<TRIPOS>BOND
     1     1    21    1
     2     1    65    1
     3     2     3    1
     4     2     6    1
     5     2     7    1
     6     2    13    1
     7     3     4    1
     8     3     9    1
     9     3    31    1
    10     4     5    1
    11     4    12    1
    12     4    32    1
    13     5     8    1
    14     5    10    1
    15     5    33    1
    16     6    11    1
    17     6    15    1
    18     6    34    1
    19     7    10    1
    20     7    35    1
    21     7    36    1
    22     8    14    1
    23     8    16    1
    24     8    18    1
    25     9    11    1
    26     9    37    1
    27     9    38    1
    28    10    39    1
    29    10    40    1
    30    11    41    1
    31    11    42    1
    32    12    17    1
    33    12    43    1
    34    12    44    1
    35    13    45    1
    36    13    46    1
    37    13    47    1
    38    14    17    2
    39    14    19    1
    40    15    22    1
    41    15    23    1
    42    15    48    1
    43    16    20    1
    44    16    49    1
    45    16    50    1
    46    17    51    1
    47    18    52    1
    48    18    53    1
    49    18    54    1
    50    19    21    1
    51    19    55    1
    52    19    56    1
    53    20    21    1
    54    20    57    1
    55    20    58    1
    56    21    59    1
    57    22    60    1
    58    22    61    1
    59    22    62    1
    60    23    24    2
    61    23    63    1
    62    24    25    1
    63    24    64    1
    64    25    26    1
    65    25    27    1
    66    25    66    1
    67    26    28    1
    68    26    29    1
    69    26    67    1
    70    27    30    1
    71    27    68    1
    72    27    69    1
    73    28    70    1
    74    28    71    1
    75    28    72    1
    76    29    73    1
    77    29    74    1
    78    29    75    1
    79    30    76    1
    80    30    77    1
    81    30    78    1
@<TRIPOS>SUBSTRUCTURE
     1 UNL1        1 TEMP              0 ****  ****    0 ROOT


##########                                Name:                5429
##########                DOCK_Rotatable_Bonds:                   0
##########                    Molecular_Weight:             180.166
##########                       Formal_Charge:         0.000100084
##########                          Grid_Score:          -28.799919
##########                     Grid_vdw_energy:          -28.790895
##########                      Grid_es_energy:           -0.009024
##########           Internal_energy_repulsive:            0.000000

@<TRIPOS>MOLECULE
5429
 21 22 1 0 0
SMALL
GASTEIGER


@<TRIPOS>ATOM
      1 O          29.2963   44.4108   45.6887 O.2     1  UNL1       -0.2654
      2 O          30.0488   43.7345   41.1805 O.2     1  UNL1       -0.2464
      3 N          31.1478   46.7975   45.4501 N.ar    1  UNL1       -0.3277
      4 N          31.1348   45.5554   42.1690 N.ar    1  UNL1       -0.2797
      5 N          29.6972   44.1037   43.4266 N.ar    1  UNL1       -0.2731
      6 N          32.1146   47.3691   43.5218 N.ar    1  UNL1       -0.2177
      7 C          30.7247   45.8870   44.5262 C.ar    1  UNL1        0.1510
      8 C          31.3313   46.2595   43.3539 C.ar    1  UNL1        0.1678
      9 C          29.8503   44.7667   44.6532 C.ar    1  UNL1        0.2798
     10 C          30.2852   44.4234   42.1768 C.ar    1  UNL1        0.3307
     11 C          31.9824   47.6691   44.7979 C.ar    1  UNL1        0.0986
     12 C          31.7934   45.9769   40.9407 C.3     1  UNL1        0.0181
     13 C          30.7992   46.8536   46.8492 C.3     1  UNL1        0.0135
     14 H          32.4626   48.4980   45.3000 H       1  UNL1        0.1029
     15 H          29.0872   43.2906   43.4332 H       1  UNL1        0.1735
     16 H          32.8769   45.9503   41.0912 H       1  UNL1        0.0458
     17 H          31.4794   46.9975   40.7012 H       1  UNL1        0.0458
     18 H          31.5362   45.3222   40.1041 H       1  UNL1        0.0458
     19 H          29.7164   46.9752   46.9314 H       1  UNL1        0.0456
     20 H          31.1223   45.9239   47.3238 H       1  UNL1        0.0456
     21 H          31.3034   47.7027   47.3176 H       1  UNL1        0.0456
@<TRIPOS>BOND
     1     1     9    2
     2     2    10    2
     3     3     7   ar
     4     3    11   ar
     5     3    13    1
     6     4     8   ar
     7     4    10   ar
     8     4    12    1
     9     5     9   ar
    10     5    10   ar
    11     5    15    1
    12     6     8   ar
    13     6    11   ar
    14     7     8   ar
    15     7     9   ar
    16    11    14    1
    17    12    16    1
    18    12    17    1
    19    12    18    1
    20    13    19    1
    21    13    20    1
    22    13    21    1
@<TRIPOS>SUBSTRUCTURE
     1 UNL1        1 TEMP              0 ****  ****    0 ROOT


##########                                Name:             5364509
##########                DOCK_Rotatable_Bonds:                  17
##########                    Molecular_Weight:             296.493
##########                       Formal_Charge:        -0.000700295
##########                          Grid_Score:          -44.998077
##########                     Grid_vdw_energy:          -43.945114
##########                      Grid_es_energy:           -1.052965
##########           Internal_energy_repulsive:           10.640421

@<TRIPOS>MOLECULE
5364509
 57 56 1 0 0
SMALL
GASTEIGER


@<TRIPOS>ATOM
      1 O          29.7940   46.7615   46.2434 O.3     1  UNL1       -0.4679
      2 O          30.3964   44.5610   46.4158 O.2     1  UNL1       -0.2509
      3 C          32.4178   41.9919   32.6645 C.3     1  UNL1       -0.0530
      4 C          31.4054   40.9934   33.2292 C.3     1  UNL1       -0.0528
      5 C          31.3346   46.2824   39.6190 C.3     1  UNL1       -0.0528
      6 C          31.7100   46.2779   41.0930 C.3     1  UNL1       -0.0530
      7 C          33.4641   41.2891   31.7997 C.3     1  UNL1       -0.0531
      8 C          30.2317   41.7213   33.8715 C.3     1  UNL1       -0.0496
      9 C          31.2619   44.8578   39.0629 C.3     1  UNL1       -0.0496
     10 C          30.5755   45.7037   41.9384 C.3     1  UNL1       -0.0526
     11 C          34.2442   40.2451   32.6012 C.3     1  UNL1       -0.0533
     12 C          30.2928   41.6772   35.3962 C.3     1  UNL1       -0.0348
     13 C          31.2365   44.8399   37.5340 C.3     1  UNL1       -0.0348
     14 C          30.8028   45.8932   43.4358 C.3     1  UNL1       -0.0430
     15 C          35.2912   39.5415   31.7365 C.3     1  UNL1       -0.0559
     16 C          30.8878   42.9705   35.8660 C.2     1  UNL1       -0.0879
     17 C          30.6453   43.5449   37.0547 C.2     1  UNL1       -0.0879
     18 C          29.6219   45.4459   44.2979 C.3     1  UNL1        0.0449
     19 C          36.0670   38.5023   32.5316 C.3     1  UNL1       -0.0653
     20 C          29.9889   45.5069   45.7532 C.2     1  UNL1        0.3068
     21 C          30.9690   47.3617   46.7954 C.3     1  UNL1        0.0817
     22 H          31.8937   42.7501   32.0690 H       1  UNL1        0.0265
     23 H          32.9134   42.5184   33.4897 H       1  UNL1        0.0265
     24 H          31.8894   40.3517   33.9743 H       1  UNL1        0.0265
     25 H          31.0387   40.3442   32.4252 H       1  UNL1        0.0265
     26 H          30.3724   46.7851   39.4705 H       1  UNL1        0.0265
     27 H          32.0910   46.8655   39.0799 H       1  UNL1        0.0265
     28 H          31.9228   47.3082   41.3980 H       1  UNL1        0.0265
     29 H          32.6238   45.6925   41.2439 H       1  UNL1        0.0265
     30 H          32.9673   40.8054   30.9501 H       1  UNL1        0.0265
     31 H          34.1582   42.0324   31.3892 H       1  UNL1        0.0265
     32 H          29.2937   41.2634   33.5285 H       1  UNL1        0.0268
     33 H          30.2136   42.7664   33.5366 H       1  UNL1        0.0268
     34 H          32.1254   44.2804   39.4204 H       1  UNL1        0.0268
     35 H          30.3677   44.3532   39.4464 H       1  UNL1        0.0268
     36 H          30.4805   44.6293   41.7347 H       1  UNL1        0.0265
     37 H          29.6214   46.1628   41.6513 H       1  UNL1        0.0265
     38 H          34.7372   40.7295   33.4529 H       1  UNL1        0.0265
     39 H          33.5486   39.5023   33.0101 H       1  UNL1        0.0265
     40 H          30.9109   40.8422   35.7453 H       1  UNL1        0.0307
     41 H          29.2940   41.5107   35.8170 H       1  UNL1        0.0307
     42 H          30.6707   45.7042   37.1679 H       1  UNL1        0.0307
     43 H          32.2485   44.9528   37.1293 H       1  UNL1        0.0307
     44 H          31.0268   46.9478   43.6400 H       1  UNL1        0.0270
     45 H          31.7003   45.3288   43.7192 H       1  UNL1        0.0270
     46 H          34.8030   39.0506   30.8866 H       1  UNL1        0.0263
     47 H          35.9930   40.2773   31.3266 H       1  UNL1        0.0263
     48 H          31.5373   43.4874   35.1620 H       1  UNL1        0.0569
     49 H          29.9269   43.0700   37.7194 H       1  UNL1        0.0569
     50 H          29.3236   44.4211   44.0584 H       1  UNL1        0.0377
     51 H          28.7658   46.1102   44.1345 H       1  UNL1        0.0377
     52 H          35.3972   37.7362   32.9351 H       1  UNL1        0.0230
     53 H          36.8025   38.0056   31.8909 H       1  UNL1        0.0230
     54 H          36.6026   38.9652   33.3667 H       1  UNL1        0.0230
     55 H          30.6604   48.1900   47.4354 H       1  UNL1        0.0661
     56 H          31.5374   46.6535   47.4057 H       1  UNL1        0.0661
     57 H          31.5941   47.7563   45.9874 H       1  UNL1        0.0661
@<TRIPOS>BOND
     1     1    20    1
     2     1    21    1
     3     2    20    2
     4     3     4    1
     5     3     7    1
     6     3    22    1
     7     3    23    1
     8     4     8    1
     9     4    24    1
    10     4    25    1
    11     5     6    1
    12     5     9    1
    13     5    26    1
    14     5    27    1
    15     6    10    1
    16     6    28    1
    17     6    29    1
    18     7    11    1
    19     7    30    1
    20     7    31    1
    21     8    12    1
    22     8    32    1
    23     8    33    1
    24     9    13    1
    25     9    34    1
    26     9    35    1
    27    10    14    1
    28    10    36    1
    29    10    37    1
    30    11    15    1
    31    11    38    1
    32    11    39    1
    33    12    16    1
    34    12    40    1
    35    12    41    1
    36    13    17    1
    37    13    42    1
    38    13    43    1
    39    14    18    1
    40    14    44    1
    41    14    45    1
    42    15    19    1
    43    15    46    1
    44    15    47    1
    45    16    17    2
    46    16    48    1
    47    17    49    1
    48    18    20    1
    49    18    50    1
    50    18    51    1
    51    19    52    1
    52    19    53    1
    53    19    54    1
    54    21    55    1
    55    21    56    1
    56    21    57    1
@<TRIPOS>SUBSTRUCTURE
     1 UNL1        1 TEMP              0 ****  ****    0 ROOT


##########                                Name:                2519
##########                DOCK_Rotatable_Bonds:                   0
##########                    Molecular_Weight:             194.193
##########                       Formal_Charge:        -2.08616e-07
##########                          Grid_Score:          -28.179441
##########                     Grid_vdw_energy:          -28.256754
##########                      Grid_es_energy:            0.077312
##########           Internal_energy_repulsive:            0.000000

@<TRIPOS>MOLECULE
2519
 24 25 1 0 0
SMALL
GASTEIGER


@<TRIPOS>ATOM
      1 O          32.1494   47.4002   45.6105 O.2     1  UNL1       -0.2652
      2 O          33.3909   47.0240   41.1015 O.2     1  UNL1       -0.2462
      3 N          31.6135   45.7290   41.8616 N.ar    1  UNL1       -0.2796
      4 N          30.0455   45.3712   44.9733 N.ar    1  UNL1       -0.3277
      5 N          32.7897   47.2287   43.3561 N.ar    1  UNL1       -0.2622
      6 N          29.7820   44.4903   42.9424 N.ar    1  UNL1       -0.2177
      7 C          31.0001   45.9430   44.1820 C.ar    1  UNL1        0.1512
      8 C          30.8167   45.3869   42.9455 C.ar    1  UNL1        0.1678
      9 C          32.0012   46.9110   44.4939 C.ar    1  UNL1        0.2822
     10 C          32.6502   46.6808   42.0299 C.ar    1  UNL1        0.3331
     11 C          29.3373   44.5040   44.1821 C.ar    1  UNL1        0.0986
     12 C          31.3858   45.1141   40.5598 C.3     1  UNL1        0.0181
     13 C          29.8050   45.6148   46.3755 C.3     1  UNL1        0.0135
     14 C          33.8510   48.2115   43.5496 C.3     1  UNL1        0.0196
     15 H          28.5140   43.9129   44.5598 H       1  UNL1        0.1029
     16 H          31.5060   44.0304   40.6533 H       1  UNL1        0.0458
     17 H          32.0900   45.4834   39.8100 H       1  UNL1        0.0458
     18 H          30.3676   45.3449   40.2316 H       1  UNL1        0.0458
     19 H          28.9682   44.9989   46.7149 H       1  UNL1        0.0456
     20 H          30.7074   45.3509   46.9324 H       1  UNL1        0.0456
     21 H          29.5622   46.6721   46.5065 H       1  UNL1        0.0456
     22 H          33.9024   48.5845   44.5749 H       1  UNL1        0.0458
     23 H          33.6779   49.0506   42.8683 H       1  UNL1        0.0458
     24 H          34.8073   47.7491   43.2852 H       1  UNL1        0.0458
@<TRIPOS>BOND
     1     1     9    2
     2     2    10    2
     3     3     8   ar
     4     3    10   ar
     5     3    12    1
     6     4     7   ar
     7     4    11   ar
     8     4    13    1
     9     5     9   ar
    10     5    10   ar
    11     5    14    1
    12     6     8   ar
    13     6    11   ar
    14     7     8   ar
    15     7     9   ar
    16    11    15    1
    17    12    16    1
    18    12    17    1
    19    12    18    1
    20    13    19    1
    21    13    20    1
    22    13    21    1
    23    14    22    1
    24    14    23    1
    25    14    24    1
@<TRIPOS>SUBSTRUCTURE
     1 UNL1        1 TEMP              0 ****  ****    0 ROOT


##########                                Name:               72435
##########                DOCK_Rotatable_Bonds:                   5
##########                    Molecular_Weight:             414.412
##########                       Formal_Charge:        -0.000300646
##########                          Grid_Score:          -37.585079
##########                     Grid_vdw_energy:          -35.996109
##########                      Grid_es_energy:           -1.588969
##########           Internal_energy_repulsive:           14.589789

@<TRIPOS>MOLECULE
72435
 52 56 1 0 0
SMALL
GASTEIGER


@<TRIPOS>ATOM
      1 O          37.6207   48.3223   41.6314 O.3     1  UNL1       -0.4640
      2 O          36.3781   44.0223   40.1792 O.3     1  UNL1       -0.3868
      3 O          35.8895   48.5505   43.1180 O.2     1  UNL1       -0.2505
      4 O          33.3707   47.2270   35.7494 O.3     1  UNL1       -0.4526
      5 O          35.0849   45.6713   35.0826 O.3     1  UNL1       -0.4526
      6 O          30.6613   44.4605   40.4258 O.3     1  UNL1       -0.4913
      7 O          31.2546   47.6775   43.9241 O.3     1  UNL1       -0.4913
      8 O          29.7252   45.7121   42.7132 O.3     1  UNL1       -0.4885
      9 C          37.1360   46.1877   40.8490 C.3     1  UNL1        0.0372
     10 C          35.8726   46.7370   41.4925 C.3     1  UNL1        0.0757
     11 C          34.7449   47.1707   40.5203 C.3     1  UNL1        0.0233
     12 C          36.8866   45.2575   39.6719 C.3     1  UNL1        0.0872
     13 C          34.8971   46.7211   39.0714 C.ar    1  UNL1       -0.0299
     14 C          37.9254   47.4423   40.5430 C.3     1  UNL1        0.0987
     15 C          35.9154   45.8225   38.6694 C.ar    1  UNL1       -0.0113
     16 C          36.4307   47.9537   42.1995 C.2     1  UNL1        0.3116
     17 C          33.3924   46.7771   41.1111 C.ar    1  UNL1       -0.0320
     18 C          34.0089   47.2373   38.1052 C.ar    1  UNL1       -0.0120
     19 C          36.0186   45.4245   37.3237 C.ar    1  UNL1       -0.0102
     20 C          34.1459   46.8298   36.7948 C.ar    1  UNL1        0.1665
     21 C          35.1228   45.9450   36.4149 C.ar    1  UNL1        0.1666
     22 C          32.9355   47.4118   42.2589 C.ar    1  UNL1       -0.0123
     23 C          32.6358   45.7895   40.4938 C.ar    1  UNL1       -0.0123
     24 C          31.4006   45.4303   41.0336 C.ar    1  UNL1        0.1654
     25 C          31.7006   47.0524   42.7987 C.ar    1  UNL1        0.1654
     26 C          30.9330   46.0618   42.1861 C.ar    1  UNL1        0.2035
     27 C          33.9708   46.4871   34.6666 C.3     1  UNL1        0.2332
     28 C          30.9421   44.1968   39.0526 C.3     1  UNL1        0.0790
     29 C          31.9352   47.3827   45.1421 C.3     1  UNL1        0.0790
     30 C          29.6784   44.5140   43.4846 C.3     1  UNL1        0.0791
     31 H          37.6848   45.6361   41.6278 H       1  UNL1        0.0370
     32 H          35.5359   46.0320   42.2621 H       1  UNL1        0.0427
     33 H          34.7707   48.2702   40.4634 H       1  UNL1        0.0405
     34 H          37.8421   45.0416   39.1782 H       1  UNL1        0.0648
     35 H          39.0023   47.2491   40.5260 H       1  UNL1        0.0701
     36 H          37.6415   47.9354   39.6078 H       1  UNL1        0.0701
     37 H          33.2299   47.9422   38.3786 H       1  UNL1        0.0658
     38 H          36.7857   44.7262   37.0043 H       1  UNL1        0.0659
     39 H          37.0471   43.6528   40.7805 H       1  UNL1        0.2102
     40 H          33.5282   48.1838   42.7422 H       1  UNL1        0.0658
     41 H          32.9883   45.2937   39.5939 H       1  UNL1        0.0658
     42 H          33.2085   45.8388   34.2193 H       1  UNL1        0.1166
     43 H          34.3193   47.1966   33.9073 H       1  UNL1        0.1166
     44 H          30.7479   45.0861   38.4446 H       1  UNL1        0.0660
     45 H          30.2824   43.3921   38.7166 H       1  UNL1        0.0660
     46 H          31.9802   43.8741   38.9258 H       1  UNL1        0.0660
     47 H          32.9896   47.6681   45.0750 H       1  UNL1        0.0660
     48 H          31.8489   46.3180   45.3814 H       1  UNL1        0.0660
     49 H          31.4676   47.9603   45.9443 H       1  UNL1        0.0660
     50 H          30.4561   43.8004   43.1903 H       1  UNL1        0.0660
     51 H          28.7047   44.0442   43.3172 H       1  UNL1        0.0660
     52 H          29.7610   44.7498   44.5493 H       1  UNL1        0.0660
@<TRIPOS>BOND
     1     1    14    1
     2     1    16    1
     3     2    12    1
     4     2    39    1
     5     3    16    2
     6     4    20    1
     7     4    27    1
     8     5    21    1
     9     5    27    1
    10     6    24    1
    11     6    28    1
    12     7    25    1
    13     7    29    1
    14     8    26    1
    15     8    30    1
    16     9    10    1
    17     9    12    1
    18     9    14    1
    19     9    31    1
    20    10    11    1
    21    10    16    1
    22    10    32    1
    23    11    13    1
    24    11    17    1
    25    11    33    1
    26    12    15    1
    27    12    34    1
    28    13    15   ar
    29    13    18   ar
    30    14    35    1
    31    14    36    1
    32    15    19   ar
    33    17    22   ar
    34    17    23   ar
    35    18    20   ar
    36    18    37    1
    37    19    21   ar
    38    19    38    1
    39    20    21   ar
    40    22    25   ar
    41    22    40    1
    42    23    24   ar
    43    23    41    1
    44    24    26   ar
    45    25    26   ar
    46    27    42    1
    47    27    43    1
    48    28    44    1
    49    28    45    1
    50    28    46    1
    51    29    47    1
    52    29    48    1
    53    29    49    1
    54    30    50    1
    55    30    51    1
    56    30    52    1
@<TRIPOS>SUBSTRUCTURE
     1 UNL1        1 TEMP              0 ****  ****    0 ROOT


##########                                Name:              638072
##########                DOCK_Rotatable_Bonds:                  21
##########                    Molecular_Weight:             410.727
##########                       Formal_Charge:        -0.000600193
##########                          Grid_Score:          -41.624012
##########                     Grid_vdw_energy:          -42.079998
##########                      Grid_es_energy:            0.455986
##########           Internal_energy_repulsive:           16.592506

@<TRIPOS>MOLECULE
638072
 80 79 1 0 0
SMALL
GASTEIGER


@<TRIPOS>ATOM
      1 C          36.6325   51.6063   43.7794 C.3     1  UNL1       -0.0286
      2 C          35.5860   46.1225   38.3833 C.3     1  UNL1       -0.0286
      3 C          37.1866   49.9064   40.2390 C.3     1  UNL1       -0.0311
      4 C          36.7828   48.4676   39.8926 C.3     1  UNL1       -0.0311
      5 C          35.1741   51.5266   44.2383 C.3     1  UNL1       -0.0308
      6 C          34.0984   46.4818   38.2938 C.3     1  UNL1       -0.0308
      7 C          36.7787   51.3899   42.2901 C.2     1  UNL1       -0.0762
      8 C          36.5217   47.1202   37.7260 C.2     1  UNL1       -0.0762
      9 C          37.0282   50.2019   41.7062 C.2     1  UNL1       -0.0847
     10 C          37.0240   48.1432   38.4446 C.2     1  UNL1       -0.0847
     11 C          35.1063   50.8133   46.6907 C.2     1  UNL1       -0.0762
     12 C          31.9394   45.9247   39.5501 C.2     1  UNL1       -0.0762
     13 C          34.9829   51.1113   48.1681 C.3     1  UNL1       -0.0286
     14 C          31.1576   45.1643   40.6006 C.3     1  UNL1       -0.0286
     15 C          35.0593   51.7466   45.7205 C.2     1  UNL1       -0.0847
     16 C          33.2565   45.7666   39.3146 C.2     1  UNL1       -0.0847
     17 C          33.5303   51.0663   48.6496 C.3     1  UNL1       -0.0308
     18 C          31.2245   45.7881   42.0010 C.3     1  UNL1       -0.0308
     19 C          36.5978   52.6239   41.4444 C.3     1  UNL1       -0.0438
     20 C          36.8606   46.8377   36.2884 C.3     1  UNL1       -0.0438
     21 C          35.3389   49.3664   46.3421 C.3     1  UNL1       -0.0438
     22 C          31.1530   46.9498   38.7743 C.3     1  UNL1       -0.0438
     23 C          33.4413   51.3650   50.1202 C.2     1  UNL1       -0.0850
     24 C          30.3854   45.0475   43.0050 C.2     1  UNL1       -0.0850
     25 C          32.5275   50.9098   50.9981 C.2     1  UNL1       -0.0796
     26 C          30.1414   45.3725   44.2885 C.2     1  UNL1       -0.0796
     27 C          31.3892   49.9888   50.6622 C.3     1  UNL1       -0.0440
     28 C          32.6036   51.3022   52.4493 C.3     1  UNL1       -0.0440
     29 C          29.2656   44.4934   45.1416 C.3     1  UNL1       -0.0440
     30 C          30.6675   46.5902   44.9931 C.3     1  UNL1       -0.0440
     31 H          37.2305   50.8637   44.3235 H       1  UNL1        0.0313
     32 H          37.0540   52.5876   44.0336 H       1  UNL1        0.0313
     33 H          35.7387   45.1447   37.9080 H       1  UNL1        0.0313
     34 H          35.8535   45.9796   39.4386 H       1  UNL1        0.0313
     35 H          38.2414   50.0658   39.9771 H       1  UNL1        0.0310
     36 H          36.6319   50.6103   39.6120 H       1  UNL1        0.0310
     37 H          35.7105   48.3471   40.0909 H       1  UNL1        0.0310
     38 H          37.2909   47.7765   40.5698 H       1  UNL1        0.0310
     39 H          34.7103   50.5875   43.9200 H       1  UNL1        0.0310
     40 H          34.5793   52.3141   43.7583 H       1  UNL1        0.0310
     41 H          33.9652   47.5610   38.4441 H       1  UNL1        0.0310
     42 H          33.7341   46.3026   37.2768 H       1  UNL1        0.0310
     43 H          37.1199   49.3337   42.3579 H       1  UNL1        0.0572
     44 H          37.6988   48.8365   37.9432 H       1  UNL1        0.0572
     45 H          35.5814   50.3880   48.7385 H       1  UNL1        0.0313
     46 H          35.4174   52.0938   48.3887 H       1  UNL1        0.0313
     47 H          31.5331   44.1331   40.6349 H       1  UNL1        0.0313
     48 H          30.1053   45.0918   40.2943 H       1  UNL1        0.0313
     49 H          34.9460   52.7873   46.0208 H       1  UNL1        0.0572
     50 H          33.7881   45.0334   39.9156 H       1  UNL1        0.0572
     51 H          32.9590   51.8342   48.1135 H       1  UNL1        0.0310
     52 H          33.0764   50.1103   48.3781 H       1  UNL1        0.0310
     53 H          30.9469   46.8422   41.9184 H       1  UNL1        0.0310
     54 H          32.2579   45.7664   42.3675 H       1  UNL1        0.0310
     55 H          35.5375   52.8886   41.3782 H       1  UNL1        0.0274
     56 H          36.9743   52.5343   40.4242 H       1  UNL1        0.0274
     57 H          37.1360   53.4667   41.8928 H       1  UNL1        0.0274
     58 H          37.6811   47.4438   35.9008 H       1  UNL1        0.0274
     59 H          35.9907   47.0194   35.6496 H       1  UNL1        0.0274
     60 H          37.1612   45.7909   36.1714 H       1  UNL1        0.0274
     61 H          34.5346   48.7508   46.7596 H       1  UNL1        0.0274
     62 H          35.3731   49.1532   45.2745 H       1  UNL1        0.0274
     63 H          36.2865   49.0251   46.7724 H       1  UNL1        0.0274
     64 H          30.6291   47.6182   39.4663 H       1  UNL1        0.0274
     65 H          31.7464   47.5836   38.1135 H       1  UNL1        0.0274
     66 H          30.4061   46.4553   38.1448 H       1  UNL1        0.0274
     67 H          34.2043   52.0512   50.4862 H       1  UNL1        0.0572
     68 H          29.9329   44.1305   42.6290 H       1  UNL1        0.0572
     69 H          31.4310   49.0979   51.2983 H       1  UNL1        0.0274
     70 H          30.4336   50.4921   50.8421 H       1  UNL1        0.0274
     71 H          31.3891   49.6383   49.6290 H       1  UNL1        0.0274
     72 H          31.6862   51.8186   52.7504 H       1  UNL1        0.0274
     73 H          32.7238   50.4125   53.0763 H       1  UNL1        0.0274
     74 H          33.4452   51.9710   52.6581 H       1  UNL1        0.0274
     75 H          29.8791   43.7798   45.7009 H       1  UNL1        0.0274
     76 H          28.5056   43.9475   44.5779 H       1  UNL1        0.0274
     77 H          28.7122   45.1003   45.8675 H       1  UNL1        0.0274
     78 H          29.8429   47.2316   45.3203 H       1  UNL1        0.0274
     79 H          31.3147   47.1843   44.3396 H       1  UNL1        0.0274
     80 H          31.2558   46.2982   45.8692 H       1  UNL1        0.0274
@<TRIPOS>BOND
     1     1     5    1
     2     1     7    1
     3     1    31    1
     4     1    32    1
     5     2     6    1
     6     2     8    1
     7     2    33    1
     8     2    34    1
     9     3     4    1
    10     3     9    1
    11     3    35    1
    12     3    36    1
    13     4    10    1
    14     4    37    1
    15     4    38    1
    16     5    15    1
    17     5    39    1
    18     5    40    1
    19     6    16    1
    20     6    41    1
    21     6    42    1
    22     7     9    2
    23     7    19    1
    24     8    10    2
    25     8    20    1
    26     9    43    1
    27    10    44    1
    28    11    13    1
    29    11    15    2
    30    11    21    1
    31    12    14    1
    32    12    16    2
    33    12    22    1
    34    13    17    1
    35    13    45    1
    36    13    46    1
    37    14    18    1
    38    14    47    1
    39    14    48    1
    40    15    49    1
    41    16    50    1
    42    17    23    1
    43    17    51    1
    44    17    52    1
    45    18    24    1
    46    18    53    1
    47    18    54    1
    48    19    55    1
    49    19    56    1
    50    19    57    1
    51    20    58    1
    52    20    59    1
    53    20    60    1
    54    21    61    1
    55    21    62    1
    56    21    63    1
    57    22    64    1
    58    22    65    1
    59    22    66    1
    60    23    25    2
    61    23    67    1
    62    24    26    2
    63    24    68    1
    64    25    27    1
    65    25    28    1
    66    26    29    1
    67    26    30    1
    68    27    69    1
    69    27    70    1
    70    27    71    1
    71    28    72    1
    72    28    73    1
    73    28    74    1
    74    29    75    1
    75    29    76    1
    76    29    77    1
    77    30    78    1
    78    30    79    1
    79    30    80    1
@<TRIPOS>SUBSTRUCTURE
     1 UNL1        1 TEMP              0 ****  ****    0 ROOT


##########                                Name:             5280794
##########                DOCK_Rotatable_Bonds:                   7
##########                    Molecular_Weight:             412.699
##########                       Formal_Charge:        -0.000399869
##########                          Grid_Score:          -27.549265
##########                     Grid_vdw_energy:          -28.022997
##########                      Grid_es_energy:            0.473732
##########           Internal_energy_repulsive:           24.874014

@<TRIPOS>MOLECULE
5280794
 78 81 1 0 0
SMALL
GASTEIGER


@<TRIPOS>ATOM
      1 O          35.3476   51.3987   45.1310 O.3     1  UNL1       -0.3915
      2 C          37.5755   47.0879   37.8587 C.3     1  UNL1       -0.0256
      3 C          36.1859   46.9895   38.5192 C.3     1  UNL1       -0.0320
      4 C          36.1965   47.3479   40.0087 C.3     1  UNL1       -0.0307
      5 C          36.7456   48.7929   40.1915 C.3     1  UNL1       -0.0285
      6 C          37.2060   46.6131   36.4320 C.3     1  UNL1       -0.0294
      7 C          38.0279   48.5518   37.9522 C.3     1  UNL1       -0.0468
      8 C          36.8130   49.1974   41.7187 C.3     1  UNL1       -0.0078
      9 C          35.6805   45.6131   38.0978 C.3     1  UNL1       -0.0492
     10 C          38.0672   49.0366   39.4118 C.3     1  UNL1       -0.0486
     11 C          36.2482   45.4238   36.6787 C.3     1  UNL1       -0.0489
     12 C          34.7849   47.2395   40.6043 C.3     1  UNL1       -0.0311
     13 C          38.6431   46.1640   38.4957 C.3     1  UNL1       -0.0590
     14 C          35.5319   48.7757   42.4522 C.2     1  UNL1       -0.0648
     15 C          38.3644   46.2593   35.5108 C.3     1  UNL1       -0.0224
     16 C          36.9650   50.7455   41.8073 C.3     1  UNL1       -0.0413
     17 C          34.6404   47.9157   41.9299 C.2     1  UNL1       -0.0839
     18 C          38.0128   48.5235   42.4270 C.3     1  UNL1       -0.0556
     19 C          35.2880   49.3779   43.8167 C.3     1  UNL1       -0.0051
     20 C          36.7731   51.3179   43.2110 C.3     1  UNL1       -0.0258
     21 C          35.4318   50.8973   43.8008 C.3     1  UNL1        0.0590
     22 C          38.1138   46.7869   34.0962 C.3     1  UNL1       -0.0587
     23 C          38.5704   44.7643   35.4754 C.2     1  UNL1       -0.0845
     24 C          38.1849   43.9813   34.4557 C.2     1  UNL1       -0.0843
     25 C          38.3923   42.4808   34.4215 C.3     1  UNL1       -0.0208
     26 C          38.5698   41.9293   32.9761 C.3     1  UNL1       -0.0405
     27 C          37.2416   41.8138   35.2076 C.3     1  UNL1       -0.0494
     28 C          39.7674   42.5167   32.2222 C.3     1  UNL1       -0.0621
     29 C          37.2956   42.1137   32.1400 C.3     1  UNL1       -0.0621
     30 C          37.3273   40.2946   35.2546 C.3     1  UNL1       -0.0647
     31 H          35.5206   47.7197   38.0276 H       1  UNL1        0.0309
     32 H          36.8378   46.6412   40.5472 H       1  UNL1        0.0309
     33 H          36.0037   49.4567   39.7180 H       1  UNL1        0.0312
     34 H          36.6113   47.4060   35.9502 H       1  UNL1        0.0312
     35 H          37.3459   49.1981   37.3849 H       1  UNL1        0.0271
     36 H          39.0253   48.7122   37.5415 H       1  UNL1        0.0271
     37 H          34.5871   45.5598   38.0994 H       1  UNL1        0.0268
     38 H          36.0517   44.8276   38.7656 H       1  UNL1        0.0268
     39 H          38.9054   48.5448   39.9138 H       1  UNL1        0.0268
     40 H          38.2995   50.1076   39.4062 H       1  UNL1        0.0268
     41 H          36.7588   44.4558   36.6178 H       1  UNL1        0.0268
     42 H          35.4410   45.4183   35.9378 H       1  UNL1        0.0268
     43 H          34.5259   46.1801   40.7199 H       1  UNL1        0.0310
     44 H          34.0430   47.6741   39.9226 H       1  UNL1        0.0310
     45 H          38.7618   46.3364   39.5688 H       1  UNL1        0.0235
     46 H          38.4026   45.1028   38.3752 H       1  UNL1        0.0235
     47 H          39.6288   46.3260   38.0478 H       1  UNL1        0.0235
     48 H          39.2909   46.7197   35.8763 H       1  UNL1        0.0343
     49 H          36.2301   51.2248   41.1460 H       1  UNL1        0.0274
     50 H          37.9528   51.0535   41.4445 H       1  UNL1        0.0274
     51 H          33.7402   47.6715   42.4888 H       1  UNL1        0.0572
     52 H          38.0181   48.7104   43.5062 H       1  UNL1        0.0238
     53 H          38.0044   47.4366   42.2957 H       1  UNL1        0.0238
     54 H          38.9690   48.9005   42.0501 H       1  UNL1        0.0238
     55 H          34.2913   49.1235   44.2000 H       1  UNL1        0.0335
     56 H          35.9870   48.9402   44.5406 H       1  UNL1        0.0335
     57 H          37.5946   51.0066   43.8680 H       1  UNL1        0.0290
     58 H          36.8302   52.4130   43.1756 H       1  UNL1        0.0290
     59 H          34.6137   51.3467   43.2258 H       1  UNL1        0.0596
     60 H          38.3717   47.8445   34.0098 H       1  UNL1        0.0235
     61 H          38.7592   46.2723   33.3730 H       1  UNL1        0.0235
     62 H          37.0806   46.6288   33.7696 H       1  UNL1        0.0235
     63 H          39.0632   44.3141   36.3343 H       1  UNL1        0.0572
     64 H          37.6781   44.4351   33.6078 H       1  UNL1        0.0572
     65 H          35.5329   50.6653   45.7421 H       1  UNL1        0.2098
     66 H          39.3234   42.2418   34.9556 H       1  UNL1        0.0345
     67 H          38.7475   40.8486   33.0628 H       1  UNL1        0.0301
     68 H          37.2049   42.1852   36.2387 H       1  UNL1        0.0268
     69 H          36.2884   42.0884   34.7391 H       1  UNL1        0.0268
     70 H          40.6859   42.4019   32.8067 H       1  UNL1        0.0233
     71 H          39.6284   43.5811   32.0089 H       1  UNL1        0.0233
     72 H          39.9126   42.0015   31.2664 H       1  UNL1        0.0233
     73 H          37.0508   43.1691   31.9859 H       1  UNL1        0.0233
     74 H          36.4335   41.6190   32.5959 H       1  UNL1        0.0233
     75 H          37.4286   41.6650   31.1487 H       1  UNL1        0.0233
     76 H          37.3872   39.8731   34.2461 H       1  UNL1        0.0230
     77 H          38.1960   39.9534   35.8254 H       1  UNL1        0.0230
     78 H          36.4346   39.8846   35.7381 H       1  UNL1        0.0230
@<TRIPOS>BOND
     1     1    21    1
     2     1    65    1
     3     2     3    1
     4     2     6    1
     5     2     7    1
     6     2    13    1
     7     3     4    1
     8     3     9    1
     9     3    31    1
    10     4     5    1
    11     4    12    1
    12     4    32    1
    13     5     8    1
    14     5    10    1
    15     5    33    1
    16     6    11    1
    17     6    15    1
    18     6    34    1
    19     7    10    1
    20     7    35    1
    21     7    36    1
    22     8    14    1
    23     8    16    1
    24     8    18    1
    25     9    11    1
    26     9    37    1
    27     9    38    1
    28    10    39    1
    29    10    40    1
    30    11    41    1
    31    11    42    1
    32    12    17    1
    33    12    43    1
    34    12    44    1
    35    13    45    1
    36    13    46    1
    37    13    47    1
    38    14    17    2
    39    14    19    1
    40    15    22    1
    41    15    23    1
    42    15    48    1
    43    16    20    1
    44    16    49    1
    45    16    50    1
    46    17    51    1
    47    18    52    1
    48    18    53    1
    49    18    54    1
    50    19    21    1
    51    19    55    1
    52    19    56    1
    53    20    21    1
    54    20    57    1
    55    20    58    1
    56    21    59    1
    57    22    60    1
    58    22    61    1
    59    22    62    1
    60    23    24    2
    61    23    63    1
    62    24    25    1
    63    24    64    1
    64    25    26    1
    65    25    27    1
    66    25    66    1
    67    26    28    1
    68    26    29    1
    69    26    67    1
    70    27    30    1
    71    27    68    1
    72    27    69    1
    73    28    70    1
    74    28    71    1
    75    28    72    1
    76    29    73    1
    77    29    74    1
    78    29    75    1
    79    30    76    1
    80    30    77    1
    81    30    78    1
@<TRIPOS>SUBSTRUCTURE
     1 UNL1        1 TEMP              0 ****  ****    0 ROOT

