
##########                                Name:            56649450
##########                DOCK_Rotatable_Bonds:                   8
##########                    Molecular_Weight:             441.477
##########                       Formal_Charge:        -0.000199873
##########                          Grid_Score:          -40.625381
##########                     Grid_vdw_energy:          -38.653625
##########                      Grid_es_energy:           -1.971757
##########           Internal_energy_repulsive:           17.943790

@<TRIPOS>MOLECULE
56649450
 52 54 1 0 0
SMALL
GASTEIGER


@<TRIPOS>ATOM
      1 S          33.1737   48.3069   44.4604 S.2     1  UNL1       -0.0518
      2 F          30.7134   47.8596   38.1549 F       1  UNL1       -0.1697
      3 F          32.7441   48.6014   38.3836 F       1  UNL1       -0.1697
      4 F          32.1636   47.5623   36.5566 F       1  UNL1       -0.1697
      5 O          32.8406   51.4034   48.9672 O.2     1  UNL1       -0.2740
      6 O          35.9356   51.4477   45.3012 O.2     1  UNL1       -0.2522
      7 N          35.4263   51.2759   47.5371 N.am    1  UNL1       -0.2738
      8 N          34.8985   49.5121   46.0875 N.am    1  UNL1       -0.2483
      9 N          32.9767   49.2031   48.3086 N.am    1  UNL1       -0.3278
     10 N          31.1607   45.5154   40.4304 N.ar    1  UNL1       -0.2590
     11 N          35.7359   48.3159   44.1176 N.ar    1  UNL1       -0.2292
     12 C          35.0093   50.4458   48.6612 C.3     1  UNL1        0.1035
     13 C          35.5638   51.1517   49.8923 C.3     1  UNL1       -0.0243
     14 C          35.5803   52.6209   49.4813 C.3     1  UNL1       -0.0349
     15 C          35.9300   52.5689   48.0016 C.3     1  UNL1        0.0170
     16 C          33.5104   50.4202   48.6609 C.2     1  UNL1        0.2311
     17 C          35.4550   50.7850   46.2224 C.2     1  UNL1        0.3085
     18 C          32.4614   46.2153   38.5126 C.3     1  UNL1        0.1019
     19 C          32.2432   46.1943   39.9888 C.ar    1  UNL1        0.0560
     20 C          32.0121   47.5734   37.9007 C.3     1  UNL1        0.4003
     21 C          31.6693   45.0813   37.7848 C.3     1  UNL1       -0.0460
     22 C          33.9495   46.0134   38.0656 C.3     1  UNL1       -0.0460
     23 C          33.1368   46.8533   40.8178 C.ar    1  UNL1       -0.0313
     24 C          32.9041   46.8134   42.1880 C.ar    1  UNL1       -0.0063
     25 C          34.7734   48.7388   44.9068 C.ar    1  UNL1        0.1663
     26 C          33.8035   47.4822   43.0951 C.ar    1  UNL1        0.0436
     27 C          35.1778   47.5958   43.0793 C.ar    1  UNL1        0.0552
     28 C          31.8007   46.1253   42.6805 C.ar    1  UNL1       -0.0353
     29 C          30.9671   45.4988   41.7684 C.ar    1  UNL1        0.0285
     30 C          36.0899   47.0257   42.0658 C.3     1  UNL1       -0.0212
     31 H          35.3889   49.4244   48.5500 H       1  UNL1        0.0597
     32 H          36.5940   50.8196   50.0720 H       1  UNL1        0.0288
     33 H          34.9941   50.9918   50.8119 H       1  UNL1        0.0288
     34 H          34.5820   53.0546   49.6150 H       1  UNL1        0.0281
     35 H          36.2899   53.2186   50.0601 H       1  UNL1        0.0281
     36 H          35.4745   53.3861   47.4349 H       1  UNL1        0.0465
     37 H          37.0147   52.5835   47.8486 H       1  UNL1        0.0465
     38 H          34.5218   49.0504   46.9088 H       1  UNL1        0.1583
     39 H          31.8580   45.0860   36.7052 H       1  UNL1        0.0241
     40 H          31.9554   44.0961   38.1718 H       1  UNL1        0.0241
     41 H          30.5877   45.1930   37.9234 H       1  UNL1        0.0241
     42 H          34.0291   45.9092   36.9769 H       1  UNL1        0.0241
     43 H          34.3736   45.1087   38.5169 H       1  UNL1        0.0241
     44 H          34.5831   46.8623   38.3444 H       1  UNL1        0.0241
     45 H          31.9759   49.0393   48.2657 H       1  UNL1        0.1450
     46 H          33.5762   48.4134   48.0938 H       1  UNL1        0.1450
     47 H          33.9839   47.4093   40.4331 H       1  UNL1        0.0642
     48 H          31.5844   46.0593   43.7421 H       1  UNL1        0.0639
     49 H          30.0943   44.9468   42.1012 H       1  UNL1        0.0830
     50 H          35.8339   45.9847   41.8440 H       1  UNL1        0.0293
     51 H          37.1266   47.0430   42.4177 H       1  UNL1        0.0293
     52 H          36.0411   47.6026   41.1370 H       1  UNL1        0.0293
@<TRIPOS>BOND
     1     1    25   ar
     2     1    26   ar
     3     2    20    1
     4     3    20    1
     5     4    20    1
     6     5    16    2
     7     6    17    2
     8     7    12    1
     9     7    15    1
    10     7    17   am
    11     8    17   am
    12     8    25    1
    13     8    38    1
    14     9    16   am
    15     9    45    1
    16     9    46    1
    17    10    19   ar
    18    10    29   ar
    19    11    25   ar
    20    11    27   ar
    21    12    13    1
    22    12    16    1
    23    12    31    1
    24    13    14    1
    25    13    32    1
    26    13    33    1
    27    14    15    1
    28    14    34    1
    29    14    35    1
    30    15    36    1
    31    15    37    1
    32    18    19    1
    33    18    20    1
    34    18    21    1
    35    18    22    1
    36    19    23   ar
    37    21    39    1
    38    21    40    1
    39    21    41    1
    40    22    42    1
    41    22    43    1
    42    22    44    1
    43    23    24   ar
    44    23    47    1
    45    24    26    1
    46    24    28   ar
    47    26    27   ar
    48    27    30    1
    49    28    29   ar
    50    28    48    1
    51    29    49    1
    52    30    50    1
    53    30    51    1
    54    30    52    1
@<TRIPOS>SUBSTRUCTURE
     1 UNL1        1 TEMP              0 ****  ****    0 ROOT

