
##########                                Name:            4l23.pdb
##########                DOCK_Rotatable_Bonds:                   3
##########                    Molecular_Weight:             348.361
##########                       Formal_Charge:         0.000199884
##########                          Grid_Score:          -47.902699
##########                     Grid_vdw_energy:          -44.880844
##########                      Grid_es_energy:           -3.021853
##########           Internal_energy_repulsive:            6.516461

@<TRIPOS>MOLECULE
4l23.pdb
 42 46 1 0 0
SMALL
AMBER ff14SB


@<TRIPOS>ATOM
      1 N01        35.6124   49.2710   43.4493 N.ar    1  X6K        -0.6460
      2 C02        36.5197   49.7018   42.5514 C.ar    1  X6K         0.4282
      3 C03        36.5459   49.3058   41.2029 C.ar    1  X6K        -0.2753
      4 C04        35.6164   48.4033   40.6797 C.ar    1  X6K        -0.0120
      5 C05        34.6901   47.9600   41.6054 C.ar    1  X6K        -0.2666
      6 C06        34.6848   48.3979   43.0148 C.ar    1  X6K         0.5507
      7 O07        33.6879   47.8242   43.7073 O.2     1  X6K        -0.0496
      8 C08        32.9939   47.0133   42.8824 C.ar    1  X6K        -0.3954
      9 C09        33.5516   47.0306   41.5225 C.ar    1  X6K         0.4356
     10 N10        33.0172   46.2913   40.5256 N.ar    1  X6K        -0.6680
     11 C11        31.8050   46.1623   43.1405 C.ar    1  X6K         0.6892
     12 N12        31.2004   46.0418   44.4180 N.3     1  X6K        -0.7243
     13 C13        30.0262   45.1640   44.4584 C.3     1  X6K         0.1513
     14 C14        29.8685   44.7705   45.9284 C.3     1  X6K         0.1219
     15 O15        29.7729   45.9260   46.7798 O.3     1  X6K        -0.4116
     16 C16        30.7330   46.9720   46.5495 C.3     1  X6K         0.1219
     17 C17        30.8471   47.3086   45.0658 C.3     1  X6K         0.1513
     18 N18        31.3660   45.4542   42.0645 N.ar    1  X6K        -0.7340
     19 C19        31.9231   45.5157   40.8085 C.ar    1  X6K         0.7175
     20 C20        31.3009   44.6642   39.7440 C.ar    1  X6K        -0.0995
     21 C21        31.6551   44.7574   38.4046 C.ar    1  X6K        -0.1230
     22 C22        31.0710   43.9385   37.4499 C.ar    1  X6K        -0.1080
     23 C23        30.1206   43.0030   37.8383 C.ar    1  X6K        -0.1410
     24 C24        29.7684   42.8965   39.1717 C.ar    1  X6K         0.1131
     25 O25        28.8416   41.9788   39.5559 O.3     1  X6K        -0.4971
     26 C26        30.3571   43.7157   40.1175 C.ar    1  X6K        -0.1740
     27 H02        37.2752   50.3958   42.8891 H       1  X6K         0.0331
     28 H03        37.3067   49.7109   40.5522 H       1  X6K         0.1520
     29 H04        35.6210   48.0820   39.6486 H       1  X6K         0.1610
     30 H132       29.1408   45.6942   44.1078 H       1  X6K         0.0632
     31 H133       30.1990   44.2772   43.8486 H       1  X6K         0.0632
     32 H142       30.7332   44.1795   46.2307 H       1  X6K         0.0600
     33 H143       28.9673   44.1682   46.0418 H       1  X6K         0.0600
     34 H162       30.4212   47.8645   47.0922 H       1  X6K         0.0600
     35 H163       31.7069   46.6510   46.9190 H       1  X6K         0.0600
     36 H172       31.6250   48.0539   44.9004 H       1  X6K         0.0632
     37 H173       29.8914   47.6714   44.6873 H       1  X6K         0.0632
     38 H21        32.3981   45.4801   38.1011 H       1  X6K         0.1490
     39 H22        31.3533   44.0275   36.4112 H       1  X6K         0.1380
     40 H23        29.6587   42.3615   37.1024 H       1  X6K         0.1520
     41 H26        30.0805   43.6170   41.1569 H       1  X6K         0.1470
     42 H25        28.5566   41.4726   38.7916 H       1  X6K         0.4200
@<TRIPOS>BOND
     1     1     2   ar
     2     1     6   ar
     3     2     3   ar
     4     3     4   ar
     5     4     5   ar
     6     5     6   ar
     7     5     9   ar
     8     6     7   ar
     9     7     8   ar
    10     8     9   ar
    11     8    11   ar
    12     9    10   ar
    13    10    19   ar
    14    11    12    1
    15    11    18   ar
    16    12    13    1
    17    12    17    1
    18    13    14    1
    19    14    15    1
    20    15    16    1
    21    16    17    1
    22    18    19   ar
    23    19    20    1
    24    20    21   ar
    25    20    26   ar
    26    21    22   ar
    27    22    23   ar
    28    23    24   ar
    29    24    25    1
    30    24    26   ar
    31    27     2    1
    32    28     3    1
    33    29     4    1
    34    30    13    1
    35    31    13    1
    36    32    14    1
    37    33    14    1
    38    34    16    1
    39    35    16    1
    40    36    17    1
    41    37    17    1
    42    38    21    1
    43    39    22    1
    44    40    23    1
    45    41    26    1
    46    42    25    1
@<TRIPOS>SUBSTRUCTURE
     1 X6K         1 TEMP              0 ****  ****    0 ROOT

